--====================================
-- CAES simulation at a synthetic field site
-- Aim: Run a representative daily load profile where energy is stored during midday and 
--		retrieved during periods of peak demand in the mornings and evenings (based on Pfeiffer et al., 2021).
--====================================


--====================================
RUNSPEC
--====================================

TITLE
GEOSTORAGE

DIMENS
120 120 50 /

START
1 'JAN' 2030 /

METRIC

WATER
GAS
OIL

REGDIMS
8 8 0 0 /

TABDIMS
4 1 1000 200 8 /

WELLDIMS
15 50 1 9 5 15 /

-- Linear solver stack size
NSTACK
200/


UNIFOUTS


MSGFILE
1 /


SAVE
/


--====================================
GRID
--====================================

GRIDFILE
0 1 /

-- Output of Summary data (GRID PROPS REGIONS)
INIT

INCLUDE
'SyntheticAnticlineGrid_v1.inc'
/

EQUALS
------IR1-IR2  JT1-JT2  KZ1-KZ2  120 120 50
ACTNUM  0		1	  120	 1    120	1	5/   --Overburden 4
ACTNUM  0		1	  120	 1    120	6	10/  --Overburden 3
ACTNUM  0		1	  120	 1    120	11	13/  --Overburden 2
ACTNUM  0		1	  120	 1    120	14	16/  --Overburden 1
ACTNUM  1		1	  120	 1    120	17	41/  --Storage FM
ACTNUM  0		1	  120	 1    120	42	44/  --Underburden 1
ACTNUM  0       1	  120	 1    120	45	47/  --Underburden 2
ACTNUM  0		1	  120	 1    120	48	50/  --Underburden 3

-- Overburden 4: tertiary reservoir seal
PERMX   0.00001	1	  120	 1    120	1	5/
PERMY   0.00001 1	  120	 1    120	1	5/
PERMZ   0.00001	1	  120	 1    120	1	5/
PORO    0.05    1	  120	 1    120	1	5/

-- Overburden 3: secondary reservoir seal
PERMX   0.0001	1	  120	 1    120	6	10/
PERMY   0.0001	1	  120	 1    120	6	10/
PERMZ   0.0001	1	  120	 1    120	6	10/
PORO    0.10	1	  120	 1    120	6	10/

-- Overburden 2: intermediate low perm. fm
PERMX   50.0	1	  120	 1    120	11	13/
PERMY   50.0	1	  120	 1    120	11	13/
PERMZ   50.0	1	  120	 1    120	11	13/
PORO    0.20	1	  120	 1    120	11	13/

-- Overburden 1: primary reservoir seal
PERMX   0.00001	1	  120	 1    120	14	16/
PERMY   0.00001 1	  120	 1    120	14	16/
PERMZ   0.00001	1	  120	 1    120	14	16/
PORO    0.05    1	  120	 1    120	14	16/

-- Storage FM: storage
PERMX   500.0	1	  120	 1    120	17	41/
PERMY   500.0	1	  120	 1    120	17	41/
PERMZ   500.0	1	  120	 1    120	17	41/
PORO    0.25    1	  120	 1    120	17	41/

-- Underburden 1: primary reservoir seal
PERMX   0.00001	1	  120	 1    120	42	44/
PERMY   0.00001 1	  120	 1    120	42	44/
PERMZ   0.00001	1	  120	 1    120	42	44/
PORO    0.05    1	  120	 1    120	42	44/

-- Underburden 2: secondary reservoir seal
PERMX   0.00001	1	  120	 1    120	45	47/
PERMY   0.00001 1	  120	 1    120	45	47/
PERMZ   0.00001	1	  120	 1    120	45	47/
PORO    0.05    1	  120	 1    120	45	47/

-- Underburden 3: tertiary reservoir seal
PERMX   0.00001	1	  120	 1    120	48	50/
PERMY   0.00001 1	  120	 1    120	48	50/
PERMZ   0.00001	1	  120	 1    120	48	50/
PORO    0.05    1	  120	 1    120	48	50/
/ 

--====================================
EDIT
--====================================
EQUALS
PORV 10000000000000 120 120 1   120   1   50/
PORV 10000000000000 1   1   1   120   1   50/
PORV 10000000000000 2	119 1     1   1   50/
PORV 10000000000000 2	119 120 120   1   50/
/

--====================================
PROPS
--====================================

DENSITY
-- Oil Density    Water Density   Air Density 
	1*            999.0163835     1.223154746/

ROCK
--reference pressure    rock compressibility  
	1.0                 10E-5/

PVTW
--Pref [bar]	BG [rm3/sm3]	Comp [1/bar]	Viscosity [cP]	Viscosibility [1/cP]	
50	0.99857741	4.53175E-05	1.000143548	-0.028497654	/
/



PVDG
--Pressure [bar]	BG [rm3/sm3]	Viscosity [cP]	
10	0.102570791	0.018342669
12	0.085422072	0.018375071
14	0.073174566	0.018408153
16	0.063990301	0.018441911
18	0.056848182	0.018476335
20	0.051135553	0.018511421
22	0.046462544	0.01854716
24	0.042569242	0.018583546
26	0.039275708	0.018620572
28	0.036453414	0.018658231
30	0.034008108	0.018696517
32	0.0318691	0.018735422
34	0.029982335	0.018774939
36	0.028305769	0.018815063
38	0.026806212	0.018855786
40	0.02545711	0.018897101
42	0.024236968	0.018939003
44	0.0231282	0.018981483
46	0.022116279	0.019024537
48	0.021189098	0.019068156
50	0.020336488	0.019112336
52	0.019549844	0.019157068
54	0.018821839	0.019202347
56	0.018146188	0.019248167
58	0.017517477	0.01929452
60	0.016931012	0.019341401
62	0.016382705	0.019388803
64	0.01586898	0.01943672
66	0.015386693	0.019485146
68	0.014933072	0.019534075
70	0.014505659	0.0195835
72	0.014102273	0.019633415
74	0.013720965	0.019683814
76	0.013359993	0.019734691
78	0.013017794	0.01978604
80	0.01269296	0.019837855
82	0.012384221	0.01989013
84	0.01209043	0.019942859
86	0.011810543	0.019996037
88	0.011543613	0.020049657
90	0.011288776	0.020103713
92	0.011045246	0.020158201
94	0.0108123	0.020213113
96	0.010589278	0.020268445
98	0.010375572	0.020324191
100	0.010170624	0.020380345
102	0.009973919	0.020436902
104	0.009784981	0.020493855
106	0.009603373	0.020551201
108	0.009428685	0.020608933
110	0.009260542	0.020667046
112	0.009098592	0.020725534
114	0.00894251	0.020784393
116	0.008791992	0.020843617
118	0.008646755	0.020903201
120	0.008506535	0.02096314
122	0.008371086	0.021023429
124	0.008240176	0.021084063
126	0.008113589	0.021145036
128	0.007991121	0.021206345
130	0.007872584	0.021267984
132	0.007757797	0.021329948
134	0.007646593	0.021392233
136	0.007538812	0.021454834
138	0.007434306	0.021517747
140	0.007332934	0.021580966
142	0.007234563	0.021644488
144	0.007139068	0.021708308
146	0.007046329	0.021772421
148	0.006956235	0.021836823
150	0.006868678	0.02190151
152	0.006783559	0.021966478
154	0.006700782	0.022031723
156	0.006620255	0.02209724
158	0.006541894	0.022163026
160	0.006465615	0.022229075
162	0.006391342	0.022295386
164	0.006318999	0.022361953
166	0.006248517	0.022428773
168	0.006179828	0.022495842
170	0.006112869	0.022563156
172	0.006047578	0.022630711
174	0.005983896	0.022698505
176	0.005921769	0.022766533
178	0.005861143	0.022834793
180	0.005801968	0.022903279
182	0.005744194	0.02297199
184	0.005687775	0.023040921
186	0.005632667	0.02311007
188	0.005578827	0.023179433
190	0.005526214	0.023249007
192	0.005474789	0.023318788
194	0.005424514	0.023388774
196	0.005375354	0.023458962
198	0.005327274	0.023529348
200	0.005280241	0.023599929
/		
PVDO
	 21.0 	 1.0102244165 	 0.5469196176
	 50.0 	 1.0089430004 	 0.5475091937
	 100.0 	 1.0067603825 	 0.548537984
/


SWFN
0.60	0.00000000	5023.77286302
0.62	0.01788854	38.07307877
0.64	0.10119289	28.85399812
0.66	0.27885480	24.53406409
0.68	0.57243340	21.86724148
0.70	1.00000000	20.00000000
1.00	1.00000000	20.00000000
/
0.60	0.00000000	2511.88643151
0.62	0.01788854	19.03653939
0.64	0.10119289	14.42699906
0.66	0.27885480	12.26703205
0.68	0.57243340	10.93362074
0.70	1.00000000	10.00000000
1.00	1.00000000	10.00000000
/
0.40	0.00000000	239.08812495
0.42	0.00032000	1.81194916
0.44	0.00181019	1.37320068
0.46	0.00498831	1.16760919
0.48	0.01024000	1.04069151
0.50	0.01788854	0.95182697
0.52	0.02821812	0.88488230
0.54	0.04148538	0.83196832
0.56	0.05792619	0.78869668
0.58	0.07776000	0.75240038
0.60	0.10119289	0.72134995
0.62	0.12841971	0.69436678
0.64	0.15962580	0.67061538
0.66	0.19498821	0.64948431
0.68	0.23467675	0.63051409
0.70	0.27885480	0.61335160
0.72	0.32768000	0.59772031
0.74	0.38130481	0.58340002
0.76	0.43987699	0.57021286
0.78	0.50354001	0.55801332
0.80	0.57243340	0.54668104
0.82	0.64669308	0.53611541
0.84	0.72645159	0.52623161
0.86	0.81183836	0.51695754
0.88	0.90297990	0.50823142
0.90	1.00000000	0.50000000
1.00	1.00000000	0.50000000
/
0.20	0.00000000	54.70653597
0.22	0.00013798	0.41459801
0.24	0.00078056	0.31420654
0.26	0.00215096	0.26716448
0.28	0.00441550	0.23812403
0.30	0.00771356	0.21779064
0.32	0.01216769	0.20247281
0.34	0.01788854	0.19036539
0.36	0.02497784	0.18046427
0.38	0.03353020	0.17215919
0.40	0.04363449	0.16505444
0.42	0.05537473	0.15888033
0.44	0.06883083	0.15344570
0.46	0.08407914	0.14861063
0.48	0.10119289	0.14426999
0.50	0.12024251	0.14034299
0.52	0.14129599	0.13676634
0.54	0.16441907	0.13348967
0.56	0.18967546	0.13047227
0.58	0.21712703	0.12768085
0.60	0.24683394	0.12508788
0.62	0.27885480	0.12267032
0.64	0.31324676	0.12040878
0.66	0.35006563	0.11828675
0.68	0.38936597	0.11629009
0.70	0.43120115	0.11440664
0.72	0.47562345	0.11262580
0.74	0.52268411	0.11093835
0.76	0.57243340	0.10933621
0.78	0.62492066	0.10781223
0.80	0.68019436	0.10636009
0.82	0.73830213	0.10497419
0.84	0.79929084	0.10364950
0.86	0.86320657	0.10238154
0.88	0.93009473	0.10116625
0.90	1.00000000	0.10000000
1.00	1.00000000	0.10000000
/

SGFN
0.00	0.00000000  0.00000000
0.30	0.00000001	0.00000000
0.32	0.00178885	0.00000000
0.34	0.01011929	0.00000000
0.36	0.02788548	0.00000000
0.38	0.05724334	0.00000000
0.40	0.10000000	0.00000000
/
0.00	0.00000000  0.00000000
0.30	0.00000001	0.00000000
0.32	0.00357771	0.00000000
0.34	0.02023858	0.00000000
0.36	0.05577096	0.00000000
0.38	0.11448668	0.00000000
0.40	0.20000000	0.00000000
/
0.00	0.00000000  0.00000000
0.10	0.00000001	0.00000000
0.12	0.00009600	0.00000000
0.14	0.00054306	0.00000000
0.16	0.00149649	0.00000000
0.18	0.00307200	0.00000000
0.20	0.00536656	0.00000000
0.22	0.00846544	0.00000000
0.24	0.01244561	0.00000000
0.26	0.01737786	0.00000000
0.28	0.02332800	0.00000000
0.30	0.03035787	0.00000000
0.32	0.03852591	0.00000000
0.34	0.04788774	0.00000000
0.36	0.05849646	0.00000000
0.38	0.07040303	0.00000000
0.40	0.08365644	0.00000000
0.42	0.09830400	0.00000000
0.44	0.11439144	0.00000000
0.46	0.13196310	0.00000000
0.48	0.15106200	0.00000000
0.50	0.17173002	0.00000000
0.52	0.19400792	0.00000000
0.54	0.21793548	0.00000000
0.56	0.24355151	0.00000000
0.58	0.27089397	0.00000000
0.60	0.30000000	0.00000000
/
0.00	0.00000000  0.00000000
0.10	0.00000001	0.00000000
0.12	0.00006899	0.00000000
0.14	0.00039028	0.00000000
0.16	0.00107548	0.00000000
0.18	0.00220775	0.00000000
0.20	0.00385678	0.00000000
0.22	0.00608384	0.00000000
0.24	0.00894427	0.00000000
0.26	0.01248892	0.00000000
0.28	0.01676510	0.00000000
0.30	0.02181724	0.00000000
0.32	0.02768736	0.00000000
0.34	0.03441541	0.00000000
0.36	0.04203957	0.00000000
0.38	0.05059644	0.00000000
0.40	0.06012126	0.00000000
0.42	0.07064800	0.00000000
0.44	0.08220954	0.00000000
0.46	0.09483773	0.00000000
0.48	0.10856351	0.00000000
0.50	0.12341697	0.00000000
0.52	0.13942740	0.00000000
0.54	0.15662338	0.00000000
0.56	0.17503282	0.00000000
0.58	0.19468299	0.00000000
0.60	0.21560058	0.00000000
0.62	0.23781173	0.00000000
0.64	0.26134206	0.00000000
0.66	0.28621670	0.00000000
0.68	0.31246033	0.00000000
0.70	0.34009718	0.00000000
0.72	0.36915107	0.00000000
0.74	0.39964542	0.00000000
0.76	0.43160329	0.00000000
0.78	0.46504736	0.00000000
0.80	0.50000000	0.00000000
/


SOF3
  0 0 0
  1 1 1 /

  0 0 0
  1 1 1 /

  0 0 0
  1 1 1 /

  0 0 0
  1 1 1 /
/
--====================================
REGIONS
--====================================
-- Overburden 4: tertiary reservoir seal
BOX
	1	120	 1    120	1	5/
FIPNUM
	72000*1/
ENDBOX
-- Overburden 3: secondary reservoir seal
BOX
	1	120	 1    120	6	10/
FIPNUM
	72000*2/
ENDBOX
-- Overburden 2: intermediate low perm. fm
BOX
	1	120	 1    120	11	13/
FIPNUM
	43200*3/
ENDBOX
-- Overburden 1: primary reservoir seal
BOX
	1	120	 1    120	14	16/
FIPNUM
	43200*4/
ENDBOX
-- Storage FM: storage
BOX
	1	120	 1    120	17	41/
FIPNUM
	360000*5/
ENDBOX
-- Underburden 1: primary reservoir seal
BOX
	1	120	 1    120	42	44/
FIPNUM
	43200*6/
ENDBOX
-- Underburden 2: secondary reservoir seal
BOX
	1	120	 1    120	45	47/
FIPNUM
	43200*7/
ENDBOX
-- Underburden 3: tertiary reservoir seal
BOX
	1	120	 1    120	48	50/
FIPNUM
	43200*8/
ENDBOX

-- SATNUM DATA
-- Overburden 4,1 & Underburden 1,2,3: SATNUM 1
-- Overburden 3: SATNUM 2
-- Overburden 2: SATNUM 3
-- STORAGE FM: SATNUM 4
SATNUM
72000*1	72000*2 43200*3 43200*1 360000*4 43200*1 43200*1 43200*1/

--====================================
SOLUTION
--====================================

EQUIL
  700 72 800 0 800 /
/


--====================================
SUMMARY
--====================================
DATE
EXCEL
RUNSUM

-- gas inj rate
WGIR
/

-- gas inj total
WGIT
/

-- bottom hole pressure
WBHP
/

-- well water prod rate
WWPR
/
 
-- well wat prod tot
WWPT
/
 
-- well gas prod rate
WGPR
/
 
-- well gas prod tot
WGPT
/
 
RGIP
/

BDENG
70	60	19 /
80	60	19 /
110	60	19 /
111	60	19 /
112	60	19 /
113	60	19 /
114	60	19 /
/
BPR
70	60	19 /
80	60	19 /
110	60	19 /
111	60	19 /
112	60	19 /
113	60	19 /
114	60	19 /
/


--====================================
SCHEDULE
--====================================

 
RPTRST
BASIC=2 ALLPROPS /


WELSPECS
--  well name    well group   I-Location    J-Location    reference depth for BHP   Preferred Phase     drainage radius for injectivity
	Well_c		GR1		60		60		700.450		'GAS' /
	Well_w		GR1		35		60		726.018		'GAS' /
	Well_e		GR1		85		60		724.083		'GAS' /
	Well_s		GR1		60		35		724.018		'GAS' /
	Well_n		GR1		60		85		724.083		'GAS' /
	Well_sw		GR1		43		42		726.195		'GAS' /
	Well_se		GR1		78		42		726.213		'GAS' /
	Well_nw		GR1		43		78		724.838		'GAS' /
	Well_ne		GR1		78		78		724.857		'GAS' /
/

COMPDAT      
--  well name I-Location J-Location upperK  lower K   Open flag   Saturation table number     Transmissibility factor  Wellbore diameter 
	Well_c		60		60		17		41		'OPEN'		1*		1*		0.25		3*		'Z'	/
	Well_w		35		60		17		41		'OPEN'		1*		1*		0.25		3*		'Z'	/
	Well_e		85		60		17		41		'OPEN'		1*		1*		0.25		3*		'Z'	/
	Well_s		60		35		17		41		'OPEN'		1*		1*		0.25		3*		'Z'	/
	Well_n		60		85		17		41		'OPEN'		1*		1*		0.25		3*		'Z'	/
	Well_sw		43		42		17		41		'OPEN'		1*		1*		0.25		3*		'Z'	/
	Well_se		78		42		17		41		'OPEN'		1*		1*		0.25		3*		'Z'	/
	Well_nw		43		78		17		41		'OPEN'		1*		1*		0.25		3*		'Z'	/
	Well_ne		78		78		17		41		'OPEN'		1*		1*		0.25		3*		'Z'	/
/


WCONINJE
'Well_c'	'GAS'	'OPEN'	'RATE'	0.0	1*	90/
'Well_n'	'GAS'	'OPEN'	'RATE'	0.0	1*	90/
'Well_ne'	'GAS'	'OPEN'	'RATE'	0.0	1*	90/
'Well_e'	'GAS'	'OPEN'	'RATE'	0.0	1*	90/
'Well_se'	'GAS'	'OPEN'	'RATE'	0.0	1*	90/
'Well_s'	'GAS'	'OPEN'	'RATE'	0.0	1*	90/
'Well_sw'	'GAS'	'OPEN'	'RATE'	0.0	1*	90/
'Well_w'	'GAS'	'OPEN'	'RATE'	0.0	1*	90/
'Well_nw'	'GAS'	'OPEN'	'RATE'	0.0	1*	90/
/

TSTEP
1*0.041666666666666664
/


END
