--====================================
RUNSPEC
--====================================
TITLE   
SYNTH_RADIAL_CAES
--                                                                 Simulation start date
START   
  1 JAN 2022 /
--                                                                 Phases and components
WATER
GAS
--                                                                 Unit system
METRIC
--                                                                 Grid dimensions
DIMENS
  100	100	10 /
--                                                                 Well dimensions
WELLDIMS
  100	100	10	10 /
--                                                                 Table dimensions
TABDIMS
-- SATNUM PVTNUM NSSFUN NPPVT NTFIP NRPVT
  1	1*	10000	1000	1	7* 1 / 
 
--                                                                 Input/output options
UNIFOUTS
-- UNIFOUT

--                                                                 un-comment for formatted I/O
--FMTIN
--FMTOUT

--                                                                 Disables the initial index file output
-- NOINSPEC

--                                                                 The fully implicit solution option
FULLIMP

MSGFILE
  1 /

SAVE
/
--                                                                 Linear solver stack size
-- NSTACK
-- 200/

--====================================
GRID
--====================================
--																Array output for Coupled interface simulator
GRIDFILE
0 2 /
  
--                                                                Grid definition
-- Output of Summary data (GRID PROPS REGIONS)
INIT

DX
  100000*10 /

DY
  100000*10 /

DZ
  100000*2 /

TOPS
  10000*1035 /

PORO
  100000*0.25 /

PERMX
  100000*500 	/

COPY
  PERMX PERMY /
  PERMX PERMZ /
/

INCLUDE
'ACTNUM.INC' /


--====================================
EDIT
--====================================

--====================================
PROPS
--====================================

-- CoolProp version:  6.4.1
-- CoolProp gitrevision:  f5ebb4e655add4c23bb327ab5209f3dbf919bc6d


DENSITY
	1* 998.2071504679284 1.20457518249315 /
ROCK
	105    1.4E-05 /
PVTW
	105 0.93290 4.3E-05 0.67661 1* / 
/

PVDG
-- Pressure [bar], FVF [rm3/sm3], Viscosity [cP] 
    10.0 0.10740763 0.01921088
    12.0 0.08947698 0.01924161
    14.0 0.07667082 0.0192729
    16.0 0.06706747 0.01930476
    18.0 0.0595993 0.01933717
    20.0 0.05362574 0.01937013
    22.0 0.04873917 0.01940363
    24.0 0.04466783 0.01943766
    26.0 0.04122358 0.01947222
    28.0 0.03827204 0.0195073
    30.0 0.03571465 0.01954289
    32.0 0.03347752 0.019579
    34.0 0.03150412 0.01961561
    36.0 0.0297505 0.01965271
    38.0 0.02818194 0.0196903
    40.0 0.02677069 0.01972838
    42.0 0.02549427 0.01976694
    44.0 0.02433429 0.01980597
    46.0 0.02327557 0.01984547
    48.0 0.02230544 0.01988543
    50.0 0.02141328 0.01992584
    52.0 0.02059008 0.01996671
    54.0 0.01982818 0.02000801
    56.0 0.01912102 0.02004976
    58.0 0.01846293 0.02009194
    60.0 0.017849 0.02013454
    62.0 0.01727496 0.02017757
    64.0 0.01673707 0.02022101
    66.0 0.01623205 0.02026487
    68.0 0.01575698 0.02030913
    70.0 0.01530932 0.02035379
    72.0 0.01488676 0.02039884
    74.0 0.01448728 0.02044429
    76.0 0.01410906 0.02049012
    78.0 0.01375045 0.02053633
    80.0 0.01341 0.02058291
    82.0 0.01308636 0.02062987
    84.0 0.01277834 0.02067718
    86.0 0.01248486 0.02072486
    88.0 0.01220491 0.0207729
    90.0 0.0119376 0.02082128
    92.0 0.0116821 0.02087001
    94.0 0.01143766 0.02091908
    96.0 0.01120359 0.02096849
    98.0 0.01097925 0.02101823
    100.0 0.01076406 0.02106829
    102.0 0.01055748 0.02111868
    104.0 0.01035901 0.02116939
    106.0 0.0101682 0.02122041
    108.0 0.00998463 0.02127174
    110.0 0.00980788 0.02132337
    112.0 0.00963761 0.02137531
    114.0 0.00947346 0.02142754
    116.0 0.00931512 0.02148007
    118.0 0.00916231 0.02153288
    120.0 0.00901473 0.02158598
    122.0 0.00887213 0.02163936
    124.0 0.00873427 0.02169302
    126.0 0.00860093 0.02174695
    128.0 0.00847189 0.02180115
    130.0 0.00834696 0.02185562
    132.0 0.00822594 0.02191034
    134.0 0.00810867 0.02196533
    136.0 0.00799497 0.02202057
    138.0 0.00788469 0.02207606
    140.0 0.00777769 0.02213179
    142.0 0.00767382 0.02218777
    144.0 0.00757295 0.022244
    146.0 0.00747497 0.02230045
    148.0 0.00737974 0.02235715
    150.0 0.00728717 0.02241407
    152.0 0.00719715 0.02247122
    154.0 0.00710957 0.02252859
    156.0 0.00702435 0.02258619
    158.0 0.00694138 0.022644
    160.0 0.0068606 0.02270203
    162.0 0.00678191 0.02276027
    164.0 0.00670524 0.02281872
    166.0 0.00663052 0.02287738
    168.0 0.00655767 0.02293624
    170.0 0.00648663 0.0229953
    172.0 0.00641733 0.02305455
    174.0 0.00634972 0.02311401
    176.0 0.00628374 0.02317365
    178.0 0.00621933 0.02323348
    180.0 0.00615643 0.02329351
    182.0 0.006095 0.02335371
    184.0 0.00603499 0.0234141
    186.0 0.00597636 0.02347467
    188.0 0.00591905 0.02353542
    190.0 0.00586303 0.02359634
    192.0 0.00580825 0.02365743
    194.0 0.00575468 0.0237187
    196.0 0.00570227 0.02378013
    198.0 0.005651 0.02384172
    200.0 0.00560083 0.02390349  /
/		

SWFN
  0 0 0
  1 1 0 /

SGFN
  0 0 0
  1 1 0 /


SKIP
SWFN
  0.20	0.00000000	54.70653597
  0.22	0.00013798	0.41459801
  0.24	0.00078056	0.31420654
  0.26	0.00215096	0.26716448
  0.28	0.00441550	0.23812403
  0.30	0.00771356	0.21779064
  0.32	0.01216769	0.20247281
  0.34	0.01788854	0.19036539
  0.36	0.02497784	0.18046427
  0.38	0.03353020	0.17215919
  0.40	0.04363449	0.16505444
  0.42	0.05537473	0.15888033
  0.44	0.06883083	0.15344570
  0.46	0.08407914	0.14861063
  0.48	0.10119289	0.14426999
  0.50	0.12024251	0.14034299
  0.52	0.14129599	0.13676634
  0.54	0.16441907	0.13348967
  0.56	0.18967546	0.13047227
  0.58	0.21712703	0.12768085
  0.60	0.24683394	0.12508788
  0.62	0.27885480	0.12267032
  0.64	0.31324676	0.12040878
  0.66	0.35006563	0.11828675
  0.68	0.38936597	0.11629009
  0.70	0.43120115	0.11440664
  0.72	0.47562345	0.11262580
  0.74	0.52268411	0.11093835
  0.76	0.57243340	0.10933621
  0.78	0.62492066	0.10781223
  0.80	0.68019436	0.10636009
  0.82	0.73830213	0.10497419
  0.84	0.79929084	0.10364950
  0.86	0.86320657	0.10238154
  0.88	0.93009473	0.10116625
  0.90	1.00000000	0.10000000
  1.00	1.00000000	0.10000000
/

SGFN
  0.00	0.00000000  0.00000000
  0.10	0.00000001	0.00000000
  0.12	0.00006899	0.00000000
  0.14	0.00039028	0.00000000
  0.16	0.00107548	0.00000000
  0.18	0.00220775	0.00000000
  0.20	0.00385678	0.00000000
  0.22	0.00608384	0.00000000
  0.24	0.00894427	0.00000000
  0.26	0.01248892	0.00000000
  0.28	0.01676510	0.00000000
  0.30	0.02181724	0.00000000
  0.32	0.02768736	0.00000000
  0.34	0.03441541	0.00000000
  0.36	0.04203957	0.00000000
  0.38	0.05059644	0.00000000
  0.40	0.06012126	0.00000000
  0.42	0.07064800	0.00000000
  0.44	0.08220954	0.00000000
  0.46	0.09483773	0.00000000
  0.48	0.10856351	0.00000000
  0.50	0.12341697	0.00000000
  0.52	0.13942740	0.00000000
  0.54	0.15662338	0.00000000
  0.56	0.17503282	0.00000000
  0.58	0.19468299	0.00000000
  0.60	0.21560058	0.00000000
  0.62	0.23781173	0.00000000
  0.64	0.26134206	0.00000000
  0.66	0.28621670	0.00000000
  0.68	0.31246033	0.00000000
  0.70	0.34009718	0.00000000
  0.72	0.36915107	0.00000000
  0.74	0.39964542	0.00000000
  0.76	0.43160329	0.00000000
  0.78	0.46504736	0.00000000
  0.80	0.50000000	0.00000000
/
ENDSKIP

--====================================
REGIONS
--====================================

--====================================
SOLUTION
--====================================

EQUIL
  1000	112	1100 / 

RPTRST
  BASIC=2 PRESS /

--====================================
SUMMARY
--====================================

NOECHO
DATE
EXCEL
RUNSUM
ALL

BPR
1	1	1	/
1	1	5	/
1	1	10	/
--
50	50	1	/
50	50	5	/
50	50	10	/
--
75	50	1	/
75	50	5	/
75	50	10	/
/

BDENG
1	1	1	/
1	1	5	/
1	1	10	/
--
50	50	1	/
50	50	5	/
50	50	10	/
--
75	50	1	/
75	50	5	/
75	50	10	/
/


BWPR
1	1	1	/
1	1	5	/
1	1	10	/
--
50	50	1	/
50	50	5	/
50	50	10	/
--
75	50	1	/
75	50	5	/
75	50	10	/
/
BGPR
1	1	1	/
1	1	5	/
1	1	10	/
--
50	50	1	/
50	50	5	/
50	50	10	/
--
75	50	1	/
75	50	5	/
75	50	10	/
/

BVWAT
1	1	1	/
1	1	5	/
1	1	10	/
--
50	50	1	/
50	50	5	/
50	50	10	/
--
75	50	1	/
75	50	5	/
75	50	10	/
/

ECHO

--====================================
SCHEDULE
--====================================

RPTSCHED
FIP WELLS/

MESSAGES
 2* 100000000 10000000 4* 100000000 100000000 2* /
 
RPTRST
BASIC=2 PRES FLORES DEN BG BW /


WELSPECS
--  well name    well group   I-Location    J-Location    reference depth for BHP   Preferred Phase     drainage radius for injectivity
  WELL_1		GR1		35		35		1*		'GAS' /
  WELL_2		GR1		50		25		1*		'GAS' /
  WELL_3		GR1		70		35		1*		'GAS' /
--
  WELL_4		GR1		25		50		1*		'GAS' /
  WELL_C		GR1		50		50		1*		'GAS' /
  WELL_6		GR1		75		50		1*		'GAS' /
--
  WELL_7		GR1		35		65		1*		'GAS' /
  WELL_8		GR1		50		75		1*		'GAS' /
  WELL_5		GR1		70		65		1*		'GAS' /
/

COMPDAT      
--  well name I-Location J-Location upperK  lower K   Open flag   Saturation table number     Transmissibility factor  Wellbore diameter 
  WELL_1		35		35		1		10		'OPEN'		2*		0.25		3*		'Z'	/
  WELL_2		50		25		1		10		'OPEN'		2*		0.25		3*		'Z'	/
  WELL_3		70		35		1		10		'OPEN'		2*		0.25		3*		'Z'	/
--     		
  WELL_4		25		50		1		10		'OPEN'		2*		0.25		3*		'Z'	/
  WELL_C		50		50		1		10		'OPEN'		2*		0.25		3*		'Z'	/
  WELL_6		75		50		1		10		'OPEN'		2*		0.25		3*		'Z'	/
--      	
  WELL_7		35		65		1		10		'OPEN'		2*		0.25		3*		'Z'	/
  WELL_8		50		75		1		10		'OPEN'		2*		0.25		3*		'Z'	/
  WELL_5		70		65		1		10		'OPEN'		2*		0.25		3*		'Z'	/
/


WCONINJE
  WELL_1	'GAS'	'OPEN'	'RATE'	0.0	1*	130 /
  WELL_2	'GAS'	'OPEN'	'RATE'	0.0	1*	130 /
  WELL_3	'GAS'	'OPEN'	'RATE'	0.0	1*	130 /
--
  WELL_4	'GAS'	'OPEN'	'RATE'	0.0	1*	130 /
  WELL_C	'GAS'	'OPEN'	'RATE'	0.0	1*	130 /
  WELL_6	'GAS'	'OPEN'	'RATE'	0.0	1*	130 /
--
  WELL_7	'GAS'	'OPEN'	'RATE'	0.0	1*	130 /
  WELL_8	'GAS'	'OPEN'	'RATE'	0.0	1*	130 /
  WELL_5	'GAS'	'OPEN'	'RATE'	0.0	1*	130 /
/

TSTEP
1*0.041666666666666664 /

END